Version 4
SHEET 1 1940 2032
WIRE 736 160 608 160
WIRE 1136 160 736 160
WIRE 1680 160 1584 160
WIRE 736 176 736 160
WIRE 1136 192 1136 160
WIRE 1680 208 1680 160
WIRE 1584 224 1584 160
WIRE 608 256 608 160
WIRE 736 272 736 256
WIRE 848 272 736 272
WIRE 960 272 848 272
WIRE 1136 288 1136 256
WIRE 736 304 736 272
WIRE 848 304 848 272
WIRE 1536 304 1456 304
WIRE 1456 320 1456 304
WIRE 1680 320 1680 288
WIRE 960 368 960 272
WIRE 608 416 608 336
WIRE 736 416 736 384
WIRE 736 416 608 416
WIRE 848 416 848 368
WIRE 848 416 736 416
WIRE 912 416 848 416
WIRE 944 416 912 416
WIRE 1136 416 1136 368
WIRE 1136 416 1040 416
WIRE 1456 432 1456 400
WIRE 1536 432 1456 432
WIRE 1584 432 1584 320
WIRE 1584 432 1536 432
WIRE 1680 432 1680 400
WIRE 1680 432 1584 432
WIRE 736 448 736 416
WIRE 1536 448 1536 432
WIRE 912 512 912 416
WIRE 960 512 912 512
WIRE 1136 512 1136 416
WIRE 1136 512 1040 512
WIRE 1136 544 1136 512
FLAG 736 448 0
FLAG 960 272 g
FLAG 1536 448 0
SYMBOL voltage 608 240 R0
WINDOW 123 0 0 Left 0
WINDOW 39 0 0 Left 0
SYMATTR InstName V1
SYMATTR Value 24
SYMBOL res 720 160 R0
SYMATTR InstName R4
SYMATTR Value 1Meg
SYMBOL cap 832 304 R0
SYMATTR InstName C1
SYMATTR Value 10µ
SYMBOL voltage 1456 304 R0
WINDOW 0 -46 12 Left 2
WINDOW 3 -227 104 Left 2
WINDOW 123 0 0 Left 0
WINDOW 39 0 0 Left 0
SYMATTR InstName V2
SYMATTR Value PULSE(0 10 0 1 0 0)
SYMBOL voltage 1680 304 R0
WINDOW 123 0 0 Left 0
WINDOW 39 0 0 Left 0
SYMATTR InstName V3
SYMATTR Value 25
SYMBOL res 1696 304 R180
WINDOW 0 36 76 Left 2
WINDOW 3 36 40 Left 2
SYMATTR InstName R3
SYMATTR Value 1
SYMBOL nmos 1040 368 R90
WINDOW 3 -10 -52 VRight 2
SYMATTR Value IRLML6344
SYMATTR InstName M1
SYMBOL res 720 288 R0
SYMATTR InstName R1
SYMATTR Value 270k
SYMBOL nmos 1536 224 R0
WINDOW 3 -10 -52 VRight 2
SYMATTR Value IRLML6344
SYMATTR InstName M3
SYMBOL res 1056 496 R90
WINDOW 0 0 56 VBottom 2
WINDOW 3 32 56 VTop 2
SYMATTR InstName R5
SYMATTR Value 100
SYMBOL cap 1120 192 R0
SYMATTR InstName C2
SYMATTR Value 1000µ
SYMBOL res 1120 272 R0
SYMATTR InstName Rtest
SYMATTR Value 1
TEXT 856 200 Left 2 !.tran 1 startup
TEXT 1232 176 Left 2 !.inc irfs52n15d.txt
