Version 4
SHEET 1 1940 2032
WIRE 496 160 416 160
WIRE 832 160 496 160
WIRE 1168 160 1088 160
WIRE 1264 160 1168 160
WIRE 1328 160 1264 160
WIRE 1472 160 1424 160
WIRE 496 176 496 160
WIRE 832 176 832 160
WIRE 1168 176 1168 160
WIRE 1472 176 1472 160
WIRE 1264 192 1264 160
WIRE 416 256 416 160
WIRE 1088 256 1088 160
WIRE 496 272 496 256
WIRE 592 272 496 272
WIRE 672 272 592 272
WIRE 832 272 832 256
WIRE 928 272 832 272
WIRE 1168 288 1168 256
WIRE 1264 288 1264 256
WIRE 1264 288 1168 288
WIRE 1344 288 1344 208
WIRE 1344 288 1264 288
WIRE 1472 288 1472 256
WIRE 1568 288 1472 288
WIRE 496 304 496 272
WIRE 592 304 592 272
WIRE 832 304 832 272
WIRE 928 304 928 272
WIRE 1168 304 1168 288
WIRE 1568 304 1568 288
WIRE 1472 320 1472 288
WIRE 672 368 672 272
WIRE 416 416 416 336
WIRE 496 416 496 384
WIRE 496 416 416 416
WIRE 592 416 592 368
WIRE 592 416 496 416
WIRE 656 416 592 416
WIRE 832 416 832 368
WIRE 832 416 752 416
WIRE 928 416 928 384
WIRE 928 416 832 416
WIRE 1088 416 1088 336
WIRE 1168 416 1168 384
WIRE 1168 416 1088 416
WIRE 1472 416 1472 384
WIRE 1472 416 1168 416
WIRE 1568 416 1568 384
WIRE 1568 416 1472 416
WIRE 496 448 496 416
WIRE 1168 448 1168 416
FLAG 496 448 0
FLAG 672 272 gn
FLAG 1168 448 0
FLAG 1344 288 gp
FLAG 1088 160 sp
SYMBOL voltage 416 240 R0
WINDOW 123 0 0 Left 0
WINDOW 39 0 0 Left 0
WINDOW 3 25 93 Left 2
SYMATTR Value 25
SYMATTR InstName V1
SYMBOL res 480 160 R0
SYMATTR InstName R4
SYMATTR Value 1Meg
SYMBOL cap 576 304 R0
SYMATTR InstName C1
SYMATTR Value 330n
SYMBOL nmos 752 368 R90
WINDOW 3 -12 -49 VRight 2
SYMATTR Value irfs52n15d
SYMATTR InstName M1
SYMATTR Prefix X
SYMBOL res 480 288 R0
SYMATTR InstName R1
SYMATTR Value 470k
SYMBOL cap 816 304 R0
SYMATTR InstName C2
SYMATTR Value 1000µ
SYMBOL res 816 160 R0
SYMATTR InstName Rtest_n
SYMATTR Value 1µ
SYMBOL res 912 288 R0
SYMATTR InstName Rload_m
SYMATTR Value 100
SYMBOL voltage 1088 240 R0
SYMATTR InstName V2
SYMATTR Value 25
SYMBOL res 1152 160 R0
SYMATTR InstName R2
SYMATTR Value 470k
SYMBOL res 1152 288 R0
SYMATTR InstName R3
SYMATTR Value 1Meg
SYMBOL cap 1248 192 R0
SYMATTR InstName C3
SYMATTR Value 330n
SYMBOL pmos 1424 208 M270
WINDOW 0 -45 46 VLeft 2
WINDOW 3 -15 67 VLeft 2
SYMATTR InstName M2
SYMATTR Value irf4905
SYMATTR Prefix X
SYMBOL res 1456 160 R0
SYMATTR InstName Rtest_r
SYMATTR Value 1µ
SYMBOL cap 1456 320 R0
SYMATTR InstName C4
SYMATTR Value 1000µ
SYMBOL res 1552 288 R0
SYMATTR InstName Rload_p
SYMATTR Value 100
TEXT 608 208 Left 2 !.tran 1 startup
TEXT 608 176 Left 2 !.inc irfs52n15d.txt
TEXT 1296 384 Left 2 !.inc irf4905.txt
