Version 4
SHEET 1 2428 692
WIRE 272 64 256 64
WIRE 448 64 432 64
WIRE 560 64 512 64
WIRE 688 64 640 64
WIRE 784 64 688 64
WIRE 944 64 864 64
WIRE 1072 64 1024 64
WIRE 1280 64 1152 64
WIRE 256 96 256 64
WIRE 688 112 688 64
WIRE 944 192 944 64
WIRE 1024 192 1024 64
WIRE 1024 192 944 192
WIRE 1120 192 1024 192
WIRE 256 208 256 176
WIRE 1280 208 1280 64
WIRE 1280 208 1184 208
WIRE 1312 208 1280 208
WIRE 1424 208 1376 208
WIRE 688 224 688 192
WIRE 688 224 624 224
WIRE 1120 224 1088 224
WIRE -144 240 -144 208
WIRE 0 240 0 208
WIRE 688 256 688 224
WIRE 1424 256 1424 208
WIRE 144 272 128 272
WIRE 1152 272 1152 240
WIRE 128 304 128 272
WIRE -144 352 -144 320
WIRE 0 352 0 320
WIRE 1424 368 1424 336
WIRE 448 384 432 384
WIRE 560 384 512 384
WIRE 688 384 688 336
WIRE 688 384 640 384
WIRE 784 384 688 384
WIRE 944 384 944 192
WIRE 944 384 864 384
WIRE 128 400 128 384
FLAG 256 208 0
FLAG 128 400 0
FLAG 0 352 0
FLAG 0 208 VCC
FLAG -144 352 0
FLAG -144 208 VREF
FLAG 272 64 dry
FLAG 144 272 wet
FLAG 1152 272 0
FLAG 1152 176 VCC
FLAG 1088 224 VREF
FLAG 624 224 VREF
FLAG 432 64 dry
FLAG 432 384 wet
FLAG 1424 368 0
FLAG 1424 208 out
SYMBOL voltage 256 80 R0
WINDOW 123 0 0 Left 0
WINDOW 39 0 0 Left 0
SYMATTR InstName V1
SYMATTR Value SINE(0 1 1k)
SYMBOL voltage 128 288 R0
WINDOW 123 0 0 Left 0
WINDOW 39 0 0 Left 0
SYMATTR InstName V2
SYMATTR Value SINE(0 1 2k3)
SYMBOL voltage 0 224 R0
WINDOW 123 0 0 Left 0
WINDOW 39 0 0 Left 0
SYMATTR InstName V3
SYMATTR Value 5
SYMBOL voltage -144 224 R0
WINDOW 123 0 0 Left 0
WINDOW 39 0 0 Left 0
SYMATTR InstName V4
SYMATTR Value 2.5
SYMBOL Opamps\\opamp2 1152 144 R0
SYMATTR InstName U1
SYMATTR Value tl072
SYMBOL cap 512 48 R90
WINDOW 0 0 32 VBottom 2
WINDOW 3 32 32 VTop 2
SYMATTR InstName C1
SYMATTR Value 1µ
SYMBOL cap 512 368 R90
WINDOW 0 0 32 VBottom 2
WINDOW 3 32 32 VTop 2
SYMATTR InstName C2
SYMATTR Value 1µ
SYMBOL res 656 48 R90
WINDOW 0 0 56 VBottom 2
WINDOW 3 32 56 VTop 2
SYMATTR InstName R1
SYMATTR Value 10k
SYMBOL res 656 368 R90
WINDOW 0 0 56 VBottom 2
WINDOW 3 32 56 VTop 2
SYMATTR InstName R3
SYMATTR Value 10k
SYMBOL res 880 48 R90
WINDOW 0 0 56 VBottom 2
WINDOW 3 32 56 VTop 2
SYMATTR InstName R4
SYMATTR Value 10k
SYMBOL res 880 368 R90
WINDOW 0 0 56 VBottom 2
WINDOW 3 32 56 VTop 2
SYMATTR InstName R5
SYMATTR Value 10k
SYMBOL res 672 96 R0
SYMATTR InstName R6
SYMATTR Value {dry*10k + 1m}
SYMBOL res 672 240 R0
SYMATTR InstName R7
SYMATTR Value {(1 - dry)*10k + 1m}
SYMBOL cap 1376 192 R90
WINDOW 0 0 32 VBottom 2
WINDOW 3 32 32 VTop 2
SYMATTR InstName C3
SYMATTR Value 10µ
SYMBOL res 1408 240 R0
SYMATTR InstName R8
SYMATTR Value 470k
SYMBOL res 1168 48 R90
WINDOW 0 0 56 VBottom 2
WINDOW 3 32 56 VTop 2
SYMATTR InstName R9
SYMATTR Value {vol*22k + 1m}
TEXT -496 112 Left 2 !.option numdgt = 7\n.option plotwinsize = 0\n.inc TL072.sub\n.param dry 1\n.param vol 1\n.tran 0 10m 0 1u
