Version 4
SHEET 1 2888 716
WIRE -48 128 -160 128
WIRE 80 128 32 128
WIRE 160 128 144 128
WIRE 240 128 160 128
WIRE 400 128 320 128
WIRE 544 144 464 144
WIRE 592 144 544 144
WIRE 704 144 592 144
WIRE 768 144 704 144
WIRE 944 144 832 144
WIRE 400 160 352 160
WIRE 1344 160 1280 160
WIRE 1488 160 1424 160
WIRE -160 176 -160 128
WIRE 944 176 944 144
WIRE 1648 176 1552 176
WIRE 1728 176 1648 176
WIRE 1792 176 1728 176
WIRE 1920 176 1872 176
WIRE 2048 176 1920 176
WIRE 2336 176 2240 176
WIRE 1488 192 1472 192
WIRE 2176 192 2112 192
WIRE 2480 192 2400 192
WIRE 2512 192 2480 192
WIRE 2640 192 2592 192
WIRE 2720 192 2704 192
WIRE 2752 192 2720 192
WIRE 704 208 704 144
WIRE 2048 208 2032 208
WIRE 2336 208 2320 208
WIRE 160 224 160 128
WIRE -384 240 -384 192
WIRE -272 240 -272 192
WIRE 1920 240 1920 176
WIRE 352 256 352 160
WIRE 352 256 272 256
WIRE 464 256 352 256
WIRE 480 256 464 256
WIRE 592 256 592 144
WIRE 592 256 560 256
WIRE 2720 256 2720 192
WIRE 944 272 944 256
WIRE 1168 272 944 272
WIRE -160 288 -160 256
WIRE 944 288 944 272
WIRE 1472 288 1472 192
WIRE 1584 288 1472 288
WIRE 1616 288 1584 288
WIRE 1728 288 1728 176
WIRE 1728 288 1696 288
WIRE 1472 304 1472 288
WIRE 2320 304 2320 208
WIRE 2368 304 2320 304
WIRE 2480 304 2480 192
WIRE 2480 304 2448 304
WIRE 2032 320 2032 208
WIRE 2112 320 2032 320
WIRE 2176 320 2176 192
WIRE 2176 320 2112 320
WIRE 272 336 272 256
WIRE 352 336 352 256
WIRE 1168 336 1168 272
WIRE 2320 336 2320 304
WIRE -384 352 -384 320
WIRE -272 352 -272 320
WIRE 464 352 464 256
WIRE 496 352 464 352
WIRE 592 352 592 256
WIRE 592 352 560 352
WIRE 1920 352 1920 320
WIRE 1920 352 1808 352
WIRE 704 384 704 288
WIRE 768 384 704 384
WIRE 944 384 944 368
WIRE 944 384 832 384
WIRE 1808 384 1808 352
WIRE 1920 384 1920 352
WIRE 2032 384 2032 320
WIRE 2720 384 2720 336
WIRE 1472 400 1472 384
WIRE 1584 400 1584 288
WIRE 1632 400 1584 400
WIRE 1728 400 1728 288
WIRE 1728 400 1696 400
WIRE 944 416 944 384
WIRE 352 448 352 416
WIRE 1168 480 1168 416
WIRE 1280 480 1280 160
WIRE 1280 480 1168 480
WIRE 1344 480 1280 480
WIRE 1472 480 1472 464
WIRE 1472 480 1424 480
WIRE 1808 480 1808 448
WIRE 1920 480 1920 448
WIRE 2032 496 2032 464
WIRE 2240 496 2240 176
WIRE 2240 496 2032 496
WIRE 272 512 272 400
WIRE 704 512 704 384
WIRE 768 512 704 512
WIRE 944 512 944 496
WIRE 944 512 832 512
WIRE 2240 512 2240 496
WIRE 1168 528 1168 480
WIRE 2032 528 2032 496
WIRE 944 544 944 512
WIRE 160 656 160 304
WIRE 272 656 272 592
WIRE 272 656 160 656
WIRE 352 656 352 512
WIRE 352 656 272 656
WIRE 464 656 352 656
WIRE 944 656 944 624
WIRE 944 656 464 656
WIRE 1168 656 1168 608
WIRE 1168 656 944 656
WIRE 1472 656 1472 480
WIRE 1472 656 1168 656
WIRE 1808 656 1808 544
WIRE 1808 656 1472 656
WIRE 1920 656 1920 544
WIRE 1920 656 1808 656
WIRE 2032 656 2032 608
WIRE 2032 656 1920 656
WIRE 2240 656 2240 592
WIRE 2240 656 2032 656
WIRE 2320 656 2320 416
WIRE 2320 656 2240 656
FLAG 464 656 VGND
FLAG 432 112 0
FLAG -272 352 0
FLAG -160 288 0
FLAG -272 192 Vpow
FLAG 432 176 Vpow
FLAG -384 192 VGND
FLAG -384 352 0
FLAG 1520 144 0
FLAG 1520 208 Vpow
FLAG 2080 160 0
FLAG 2080 224 Vpow
FLAG 2368 160 0
FLAG 2368 224 Vpow
FLAG 2752 192 out
FLAG 2720 384 0
FLAG -160 128 in
FLAG 544 144 stage1
FLAG 1648 176 stage2
FLAG 2112 320 stage3
SYMBOL res 48 112 R90
WINDOW 0 0 56 VBottom 2
WINDOW 3 32 56 VTop 2
SYMATTR InstName R1
SYMATTR Value 100k
SYMBOL cap 144 112 R90
WINDOW 0 0 32 VBottom 2
WINDOW 3 32 32 VTop 2
SYMATTR InstName C1
SYMATTR Value 47n
SYMBOL res 336 112 R90
WINDOW 0 0 56 VBottom 2
WINDOW 3 32 56 VTop 2
SYMATTR InstName R4
SYMATTR Value 1k
SYMBOL voltage -160 160 R0
WINDOW 123 0 0 Left 0
WINDOW 39 0 0 Left 0
SYMATTR InstName V1
SYMATTR Value SINE(0 0.2 1k)
SYMBOL Opamps\\opamp2 432 208 M180
SYMATTR InstName U1
SYMATTR Value TL072
SYMBOL cap 288 400 R180
WINDOW 0 24 56 Left 2
WINDOW 3 24 8 Left 2
SYMATTR InstName C2
SYMATTR Value 22n
SYMBOL res 256 496 R0
SYMATTR InstName R5
SYMATTR Value 1k
SYMBOL res 144 208 R0
SYMATTR InstName R3
SYMATTR Value 1Meg
SYMBOL res 336 320 R0
SYMATTR InstName R6
SYMATTR Value 4k7
SYMBOL cap 368 512 R180
WINDOW 0 24 56 Left 2
WINDOW 3 24 8 Left 2
SYMATTR InstName C3
SYMATTR Value 1µ
SYMBOL voltage -272 224 R0
WINDOW 123 0 0 Left 0
WINDOW 39 0 0 Left 0
SYMATTR InstName V2
SYMATTR Value 24
SYMBOL res 576 240 R90
WINDOW 0 0 56 VBottom 2
WINDOW 3 32 56 VTop 2
SYMATTR InstName R7
SYMATTR Value 68k
SYMBOL cap 560 336 R90
WINDOW 0 0 32 VBottom 2
WINDOW 3 32 32 VTop 2
SYMATTR InstName C4
SYMATTR Value 120p
SYMBOL voltage -384 224 R0
SYMATTR InstName V3
SYMATTR Value 12
SYMBOL res 688 192 R0
SYMATTR InstName R8
SYMATTR Value 33k
SYMBOL cap 832 128 R90
WINDOW 0 0 32 VBottom 2
WINDOW 3 32 32 VTop 2
SYMATTR InstName C5
SYMATTR Value 1n
SYMBOL cap 832 368 R90
WINDOW 0 0 32 VBottom 2
WINDOW 3 32 32 VTop 2
SYMATTR InstName C6
SYMATTR Value 220n
SYMBOL cap 832 496 R90
WINDOW 0 0 32 VBottom 2
WINDOW 3 32 32 VTop 2
SYMATTR InstName C7
SYMATTR Value 100n
SYMBOL res 928 528 R0
WINDOW 3 -73 77 Left 2
SYMATTR Value {ptm*10k + 1m}
SYMATTR InstName P3
SYMBOL res 928 400 R0
WINDOW 3 -73 76 Left 2
SYMATTR Value {ptb*50k + 1m}
SYMATTR InstName P2
SYMBOL res 928 272 R0
WINDOW 3 -51 74 Left 2
SYMATTR Value {ptt*50k + 1m}
SYMATTR InstName P1b
SYMBOL res 928 160 R0
WINDOW 3 -77 73 Left 2
SYMATTR Value {(1 - ptt)*50k + 1m}
SYMATTR InstName P1a
SYMBOL res 1152 320 R0
WINDOW 3 -79 78 Left 2
SYMATTR Value {(1 - ptg)*500k + 1m}
SYMATTR InstName P4a
SYMBOL res 1152 512 R0
WINDOW 3 -62 85 Left 2
SYMATTR Value {ptg*500k + 1m}
SYMATTR InstName P4b
SYMBOL Opamps\\opamp2 1520 240 M180
SYMATTR InstName U2
SYMATTR Value TL072
SYMBOL res 1440 144 R90
WINDOW 0 0 56 VBottom 2
WINDOW 3 32 56 VTop 2
SYMATTR InstName R9
SYMATTR Value 1k
SYMBOL res 1440 464 R90
WINDOW 0 0 56 VBottom 2
WINDOW 3 32 56 VTop 2
SYMATTR InstName R10
SYMATTR Value 1Meg
SYMBOL res 1456 288 R0
SYMATTR InstName R11
SYMATTR Value 4k7
SYMBOL res 1712 272 R90
WINDOW 0 0 56 VBottom 2
WINDOW 3 32 56 VTop 2
SYMATTR InstName R12
SYMATTR Value 68k
SYMBOL cap 1456 400 R0
SYMATTR InstName C8
SYMATTR Value 1µ
SYMBOL cap 1696 384 R90
WINDOW 0 0 32 VBottom 2
WINDOW 3 32 32 VTop 2
SYMATTR InstName C10
SYMATTR Value 120p
SYMBOL res 1888 160 R90
WINDOW 0 0 56 VBottom 2
WINDOW 3 32 56 VTop 2
SYMATTR InstName R13
SYMATTR Value 4k7
SYMBOL res 1936 336 R180
WINDOW 0 36 76 Left 2
WINDOW 3 36 40 Left 2
SYMATTR InstName R14
SYMATTR Value 220
SYMBOL diode 1824 448 R180
WINDOW 0 24 64 Left 2
WINDOW 3 24 0 Left 2
SYMATTR InstName D1
SYMATTR Value 1N4148
SYMBOL diode 1824 544 R180
WINDOW 0 24 64 Left 2
WINDOW 3 24 0 Left 2
SYMATTR InstName D2
SYMATTR Value 1N4148
SYMBOL diode 1904 384 R0
WINDOW 0 -22 2 Left 2
WINDOW 3 -70 65 Left 2
SYMATTR InstName D3
SYMATTR Value 1N4148
SYMBOL diode 1904 480 R0
WINDOW 0 -22 2 Left 2
WINDOW 3 -71 64 Left 2
SYMATTR InstName D4
SYMATTR Value 1N4148
SYMBOL Opamps\\opamp2 2080 256 M180
SYMATTR InstName U3
SYMATTR Value TL072
SYMBOL res 2016 368 R0
WINDOW 3 -25 74 Left 2
SYMATTR Value {(1 - ptv)*50k + 1m}
SYMATTR InstName P5a
SYMBOL res 2016 512 R0
WINDOW 3 -15 76 Left 2
SYMATTR Value {ptv*50k + 1m}
SYMATTR InstName P5b
SYMBOL Opamps\\opamp2 2368 256 M180
SYMATTR InstName U4
SYMATTR Value TL072
SYMBOL res 2464 288 R90
WINDOW 0 0 56 VBottom 2
WINDOW 3 32 56 VTop 2
SYMATTR InstName R15
SYMATTR Value 10k
SYMBOL res 2256 608 R180
WINDOW 0 36 76 Left 2
WINDOW 3 36 40 Left 2
SYMATTR InstName R16
SYMATTR Value 100k
SYMBOL res 2496 208 R270
WINDOW 0 32 56 VTop 2
WINDOW 3 0 56 VBottom 2
SYMATTR InstName R17
SYMATTR Value 220
SYMBOL res 2336 432 R180
WINDOW 0 36 76 Left 2
WINDOW 3 36 40 Left 2
SYMATTR InstName R18
SYMATTR Value 100k
SYMBOL cap 2704 176 R90
WINDOW 0 0 32 VBottom 2
WINDOW 3 32 32 VTop 2
SYMATTR InstName C11
SYMATTR Value 2µ2
SYMBOL res 2704 240 R0
SYMATTR InstName R19
SYMATTR Value 1Meg
TEXT -408 416 Left 2 !.inc OPAx134.lib\n.inc NE5532.txt\n.inc TL072.sub
TEXT -392 576 Left 2 !.tran 10m
TEXT -200 400 Left 2 !.param ptt 0.5\n.param ptm 0.5\n.param ptb 0.5\n.param ptg 0.95\n.param ptv 0.95
