Version 4
SHEET 1 2888 724
WIRE -16 128 -64 128
WIRE 80 128 64 128
WIRE 160 128 144 128
WIRE 240 128 160 128
WIRE 400 128 320 128
WIRE 544 144 464 144
WIRE 592 144 544 144
WIRE 704 144 592 144
WIRE 768 144 704 144
WIRE 944 144 832 144
WIRE 400 160 352 160
WIRE 1136 160 1088 160
WIRE 1264 160 1216 160
WIRE -64 176 -64 128
WIRE 944 176 944 144
WIRE 1424 176 1328 176
WIRE 1504 176 1424 176
WIRE 1568 176 1504 176
WIRE 1696 176 1648 176
WIRE 1760 176 1696 176
WIRE 1824 176 1760 176
WIRE 2112 176 2016 176
WIRE 1264 192 1248 192
WIRE 1952 192 1888 192
WIRE 2256 192 2176 192
WIRE 704 208 704 144
WIRE 1824 208 1808 208
WIRE 2112 208 2096 208
WIRE 160 224 160 128
WIRE 1696 224 1696 176
WIRE -336 240 -336 192
WIRE -224 240 -224 192
WIRE 352 256 352 160
WIRE 352 256 272 256
WIRE 464 256 352 256
WIRE 480 256 464 256
WIRE 592 256 592 144
WIRE 592 256 560 256
WIRE 944 272 944 256
WIRE 1088 272 1088 160
WIRE 1088 272 944 272
WIRE -64 288 -64 256
WIRE 944 288 944 272
WIRE 1248 288 1248 192
WIRE 1360 288 1248 288
WIRE 1392 288 1360 288
WIRE 1504 288 1504 176
WIRE 1504 288 1472 288
WIRE 2096 304 2096 208
WIRE 2144 304 2096 304
WIRE 2256 304 2256 192
WIRE 2256 304 2224 304
WIRE 1808 320 1808 208
WIRE 1888 320 1808 320
WIRE 1952 320 1952 192
WIRE 1952 320 1888 320
WIRE 2256 320 2256 304
WIRE 272 336 272 256
WIRE 352 336 352 256
WIRE 2096 336 2096 304
WIRE -336 352 -336 320
WIRE -224 352 -224 320
WIRE 464 352 464 256
WIRE 496 352 464 352
WIRE 592 352 592 256
WIRE 592 352 560 352
WIRE 1248 352 1248 288
WIRE 1696 352 1696 304
WIRE 1696 352 1584 352
WIRE 704 384 704 288
WIRE 768 384 704 384
WIRE 944 384 944 368
WIRE 944 384 832 384
WIRE 1808 384 1808 320
WIRE 1088 400 1088 272
WIRE 1360 400 1360 288
WIRE 1408 400 1360 400
WIRE 1504 400 1504 288
WIRE 1504 400 1472 400
WIRE 944 416 944 384
WIRE 1584 416 1584 352
WIRE 1696 416 1696 352
WIRE 2256 432 2256 400
WIRE 352 448 352 416
WIRE 1248 496 1248 432
WIRE 1808 496 1808 464
WIRE 2016 496 2016 176
WIRE 2016 496 1808 496
WIRE 272 512 272 400
WIRE 704 512 704 384
WIRE 768 512 704 512
WIRE 944 512 944 496
WIRE 944 512 832 512
WIRE 2016 512 2016 496
WIRE 1584 528 1584 480
WIRE 1696 528 1696 480
WIRE 1808 528 1808 496
WIRE 2256 528 2256 496
WIRE 2272 528 2256 528
WIRE 944 544 944 512
WIRE 2256 560 2256 528
WIRE 160 656 160 304
WIRE 272 656 272 592
WIRE 272 656 160 656
WIRE 352 656 352 512
WIRE 352 656 272 656
WIRE 464 656 352 656
WIRE 944 656 944 624
WIRE 944 656 464 656
WIRE 1088 656 1088 480
WIRE 1088 656 944 656
WIRE 1248 656 1248 560
WIRE 1248 656 1088 656
WIRE 1584 656 1584 592
WIRE 1584 656 1248 656
WIRE 1696 656 1696 592
WIRE 1696 656 1584 656
WIRE 1808 656 1808 608
WIRE 1808 656 1696 656
WIRE 2016 656 2016 592
WIRE 2016 656 1808 656
WIRE 2096 656 2096 416
WIRE 2096 656 2016 656
WIRE 2256 656 2256 640
FLAG 464 656 VGND
FLAG 432 112 0
FLAG -224 352 0
FLAG -64 288 0
FLAG -224 192 Vpow
FLAG 432 176 Vpow
FLAG -336 192 VGND
FLAG -336 352 0
FLAG 1296 144 0
FLAG 1296 208 Vpow
FLAG 1856 160 0
FLAG 1856 224 Vpow
FLAG 2144 160 0
FLAG 2144 224 Vpow
FLAG 2272 528 out
FLAG 2256 656 0
FLAG -64 128 in
FLAG 544 144 stage1
FLAG 1424 176 stage2
FLAG 1888 320 stage3
FLAG 1760 176 clipped
SYMBOL res 80 112 R90
WINDOW 0 0 56 VBottom 2
WINDOW 3 32 56 VTop 2
SYMATTR InstName R1
SYMATTR Value 100k
SYMBOL cap 144 112 R90
WINDOW 0 0 32 VBottom 2
WINDOW 3 32 32 VTop 2
SYMATTR InstName C1
SYMATTR Value 100n
SYMBOL res 336 112 R90
WINDOW 0 0 56 VBottom 2
WINDOW 3 32 56 VTop 2
SYMATTR InstName R4
SYMATTR Value 1k
SYMBOL voltage -64 160 R0
WINDOW 123 24 124 Left 2
WINDOW 39 0 0 Left 0
SYMATTR Value2 AC 1
SYMATTR InstName V1
SYMATTR Value SINE(0 0.2 3k)
SYMBOL Opamps\\opamp2 432 208 M180
SYMATTR InstName U1
SYMATTR Value TL072
SYMBOL cap 288 400 R180
WINDOW 0 24 56 Left 2
WINDOW 3 24 8 Left 2
SYMATTR InstName C2
SYMATTR Value 22n
SYMBOL res 256 496 R0
SYMATTR InstName R5
SYMATTR Value 1k
SYMBOL res 144 208 R0
SYMATTR InstName R3
SYMATTR Value 1Meg
SYMBOL res 336 320 R0
SYMATTR InstName R6
SYMATTR Value 4k7
SYMBOL cap 368 512 R180
WINDOW 0 24 56 Left 2
WINDOW 3 24 8 Left 2
SYMATTR InstName C3
SYMATTR Value 1µ
SYMBOL voltage -224 224 R0
WINDOW 123 0 0 Left 0
WINDOW 39 0 0 Left 0
SYMATTR InstName V2
SYMATTR Value 24
SYMBOL res 576 240 R90
WINDOW 0 0 56 VBottom 2
WINDOW 3 32 56 VTop 2
SYMATTR InstName R7
SYMATTR Value 47k
SYMBOL cap 560 336 R90
WINDOW 0 0 32 VBottom 2
WINDOW 3 32 32 VTop 2
SYMATTR InstName C4
SYMATTR Value 120p
SYMBOL voltage -336 224 R0
SYMATTR InstName V3
SYMATTR Value 12
SYMBOL res 688 192 R0
SYMATTR InstName R8
SYMATTR Value 100k
SYMBOL cap 832 128 R90
WINDOW 0 0 32 VBottom 2
WINDOW 3 32 32 VTop 2
SYMATTR InstName C5
SYMATTR Value 250p
SYMBOL cap 832 368 R90
WINDOW 0 0 32 VBottom 2
WINDOW 3 32 32 VTop 2
SYMATTR InstName C6
SYMATTR Value 100n
SYMBOL cap 832 496 R90
WINDOW 0 0 32 VBottom 2
WINDOW 3 32 32 VTop 2
SYMATTR InstName C7
SYMATTR Value 47n
SYMBOL res 928 528 R0
WINDOW 3 -73 77 Left 2
SYMATTR Value {ptm*10k + 1m}
SYMATTR InstName P3
SYMBOL res 928 400 R0
WINDOW 3 -73 76 Left 2
SYMATTR Value {ptb*250k + 1m}
SYMATTR InstName P2
SYMBOL res 928 272 R0
WINDOW 3 -51 74 Left 2
SYMATTR Value {ptt*250k + 1m}
SYMATTR InstName P1b
SYMBOL res 928 160 R0
WINDOW 3 -77 73 Left 2
SYMATTR Value {(1 - ptt)*250k + 1m}
SYMATTR InstName P1a
SYMBOL Opamps\\opamp2 1296 240 M180
SYMATTR InstName U2
SYMATTR Value TL072
SYMBOL res 1232 144 R90
WINDOW 0 0 56 VBottom 2
WINDOW 3 32 56 VTop 2
SYMATTR InstName R9
SYMATTR Value 1k
SYMBOL res 1072 384 R0
SYMATTR InstName R10
SYMATTR Value 1Meg
SYMBOL res 1232 336 R0
SYMATTR InstName R11
SYMATTR Value 10k
SYMBOL res 1488 272 R90
WINDOW 0 0 56 VBottom 2
WINDOW 3 32 56 VTop 2
SYMATTR InstName R12
SYMATTR Value 10k
SYMBOL cap 1232 496 R0
SYMATTR InstName C8
SYMATTR Value 1µ
SYMBOL cap 1472 384 R90
WINDOW 0 0 32 VBottom 2
WINDOW 3 32 32 VTop 2
SYMATTR InstName C10
SYMATTR Value 120p
SYMBOL res 1664 160 R90
WINDOW 0 0 56 VBottom 2
WINDOW 3 32 56 VTop 2
SYMATTR InstName R13
SYMATTR Value 4k7
SYMBOL res 1712 320 R180
WINDOW 0 36 76 Left 2
WINDOW 3 36 40 Left 2
SYMATTR InstName R14
SYMATTR Value 220
SYMBOL diode 1600 480 R180
WINDOW 0 24 64 Left 2
WINDOW 3 24 0 Left 2
SYMATTR InstName D1
SYMATTR Value 1N4148
SYMBOL diode 1600 592 R180
WINDOW 0 24 64 Left 2
WINDOW 3 24 0 Left 2
SYMATTR InstName D2
SYMATTR Value 1N4148
SYMBOL diode 1680 416 R0
WINDOW 0 -22 2 Left 2
WINDOW 3 -70 65 Left 2
SYMATTR InstName D3
SYMATTR Value 1N4148
SYMBOL diode 1680 528 R0
WINDOW 0 -22 2 Left 2
WINDOW 3 -71 64 Left 2
SYMATTR InstName D4
SYMATTR Value 1N4148
SYMBOL Opamps\\opamp2 1856 256 M180
SYMATTR InstName U3
SYMATTR Value TL072
SYMBOL res 1792 368 R0
WINDOW 3 -25 74 Left 2
SYMATTR Value {(1 - ptv)*50k + 1m}
SYMATTR InstName P5a
SYMBOL res 1792 512 R0
WINDOW 3 -15 76 Left 2
SYMATTR Value {ptv*50k + 1m}
SYMATTR InstName P5b
SYMBOL Opamps\\opamp2 2144 256 M180
SYMATTR InstName U4
SYMATTR Value TL072
SYMBOL res 2240 288 R90
WINDOW 0 0 56 VBottom 2
WINDOW 3 32 56 VTop 2
SYMATTR InstName R15
SYMATTR Value 10k
SYMBOL res 2032 608 R180
WINDOW 0 36 76 Left 2
WINDOW 3 36 40 Left 2
SYMATTR InstName R16
SYMATTR Value 100k
SYMBOL res 2240 304 R0
SYMATTR InstName R17
SYMATTR Value 220
SYMBOL res 2112 432 R180
WINDOW 0 36 76 Left 2
WINDOW 3 36 40 Left 2
SYMATTR InstName R18
SYMATTR Value 10k
SYMBOL cap 2272 496 R180
WINDOW 0 24 56 Left 2
WINDOW 3 24 8 Left 2
SYMATTR InstName C11
SYMATTR Value 2µ2
SYMBOL res 2240 544 R0
SYMATTR InstName R19
SYMATTR Value 1Meg
TEXT -360 416 Left 2 !.inc OPAx134.lib\n.inc NE5532.txt\n.inc TL072.sub
TEXT -120 408 Left 2 !.ac oct 100 10 50k
TEXT -360 520 Left 2 !.param ptt 0.5\n.param ptm 0.5\n.param ptb 0.5\n.param ptv 0.5
