Version 4
SHEET 1 2888 716
WIRE -16 128 -128 128
WIRE 112 128 64 128
WIRE 192 128 176 128
WIRE 240 128 192 128
WIRE 400 128 320 128
WIRE 592 144 464 144
WIRE 704 144 592 144
WIRE 768 144 704 144
WIRE 944 144 832 144
WIRE 192 160 192 128
WIRE 400 160 352 160
WIRE 1344 160 1280 160
WIRE 1488 160 1424 160
WIRE -128 176 -128 128
WIRE 944 176 944 144
WIRE 1776 176 1552 176
WIRE 1872 176 1776 176
WIRE 2000 176 1952 176
WIRE 2128 176 2000 176
WIRE 2416 176 2320 176
WIRE 1488 192 1472 192
WIRE 2256 192 2192 192
WIRE 2560 192 2480 192
WIRE 2592 192 2560 192
WIRE 2720 192 2672 192
WIRE 2800 192 2784 192
WIRE 2832 192 2800 192
WIRE 704 208 704 144
WIRE 2128 208 2112 208
WIRE 2416 208 2400 208
WIRE -384 240 -384 192
WIRE -272 240 -272 192
WIRE 2000 240 2000 176
WIRE 240 256 112 256
WIRE 352 256 352 160
WIRE 352 256 304 256
WIRE 464 256 352 256
WIRE 480 256 464 256
WIRE 592 256 592 144
WIRE 592 256 560 256
WIRE 2800 256 2800 192
WIRE 944 272 944 256
WIRE 1168 272 944 272
WIRE -128 288 -128 256
WIRE 944 288 944 272
WIRE 1472 288 1472 192
WIRE 1616 288 1472 288
WIRE 1648 288 1616 288
WIRE 1776 288 1776 176
WIRE 1776 288 1728 288
WIRE 1472 304 1472 288
WIRE 2400 304 2400 208
WIRE 2448 304 2400 304
WIRE 2560 304 2560 192
WIRE 2560 304 2528 304
WIRE 112 320 112 256
WIRE 192 320 192 240
WIRE 2112 320 2112 208
WIRE 2256 320 2256 192
WIRE 2256 320 2112 320
WIRE 352 336 352 256
WIRE 1168 336 1168 272
WIRE 2400 336 2400 304
WIRE -384 352 -384 320
WIRE -272 352 -272 320
WIRE 464 352 464 256
WIRE 496 352 464 352
WIRE 592 352 592 256
WIRE 592 352 560 352
WIRE 2000 352 2000 320
WIRE 2000 352 1888 352
WIRE 704 384 704 288
WIRE 768 384 704 384
WIRE 944 384 944 368
WIRE 944 384 832 384
WIRE 1888 384 1888 352
WIRE 2000 384 2000 352
WIRE 2112 384 2112 320
WIRE 2800 384 2800 336
WIRE 1472 400 1472 384
WIRE 1616 400 1616 288
WIRE 1664 400 1616 400
WIRE 1776 400 1776 288
WIRE 1776 400 1728 400
WIRE 944 416 944 384
WIRE 352 448 352 416
WIRE 1168 480 1168 416
WIRE 1280 480 1280 160
WIRE 1280 480 1168 480
WIRE 1344 480 1280 480
WIRE 1472 480 1472 464
WIRE 1472 480 1424 480
WIRE 1888 480 1888 448
WIRE 2000 480 2000 448
WIRE 1616 496 1616 400
WIRE 1664 496 1616 496
WIRE 1776 496 1776 400
WIRE 1776 496 1728 496
WIRE 2112 496 2112 464
WIRE 2320 496 2320 176
WIRE 2320 496 2112 496
WIRE 704 512 704 384
WIRE 768 512 704 512
WIRE 944 512 944 496
WIRE 944 512 832 512
WIRE 2320 512 2320 496
WIRE 1168 528 1168 480
WIRE 2112 528 2112 496
WIRE 944 544 944 512
WIRE 112 656 112 400
WIRE 192 656 192 400
WIRE 192 656 112 656
WIRE 240 656 192 656
WIRE 352 656 352 512
WIRE 352 656 240 656
WIRE 944 656 944 624
WIRE 944 656 352 656
WIRE 1168 656 1168 608
WIRE 1168 656 944 656
WIRE 1472 656 1472 480
WIRE 1472 656 1168 656
WIRE 1888 656 1888 544
WIRE 1888 656 1472 656
WIRE 2000 656 2000 544
WIRE 2000 656 1888 656
WIRE 2112 656 2112 608
WIRE 2112 656 2000 656
WIRE 2320 656 2320 592
WIRE 2320 656 2112 656
WIRE 2400 656 2400 416
WIRE 2400 656 2320 656
FLAG 240 656 VGND
FLAG 432 112 0
FLAG -272 352 0
FLAG -128 288 0
FLAG -272 192 Vpow
FLAG 432 176 Vpow
FLAG -384 192 VGND
FLAG -384 352 0
FLAG 1520 144 0
FLAG 1520 208 Vpow
FLAG 2160 160 0
FLAG 2160 224 Vpow
FLAG 2448 160 0
FLAG 2448 224 Vpow
FLAG 2832 192 out
FLAG 2800 384 0
SYMBOL res 80 112 R90
WINDOW 0 0 56 VBottom 2
WINDOW 3 32 56 VTop 2
SYMATTR InstName R1
SYMATTR Value 100k
SYMBOL cap 176 112 R90
WINDOW 0 0 32 VBottom 2
WINDOW 3 32 32 VTop 2
SYMATTR InstName C1
SYMATTR Value 47n
SYMBOL res 336 112 R90
WINDOW 0 0 56 VBottom 2
WINDOW 3 32 56 VTop 2
SYMATTR InstName R4
SYMATTR Value 1k
SYMBOL voltage -128 160 R0
WINDOW 123 0 0 Left 0
WINDOW 39 0 0 Left 0
SYMATTR InstName V1
SYMATTR Value SINE(0 0.2 1k)
SYMBOL Opamps\\opamp2 432 208 M180
SYMATTR InstName U1
SYMATTR Value TL072
SYMBOL cap 304 240 R90
WINDOW 0 0 32 VBottom 2
WINDOW 3 32 32 VTop 2
SYMATTR InstName C2
SYMATTR Value 22n
SYMBOL res 96 304 R0
SYMATTR InstName R5
SYMATTR Value 1k
SYMBOL res 176 304 R0
SYMATTR InstName R3
SYMATTR Value 1Meg
SYMBOL res 336 320 R0
SYMATTR InstName R6
SYMATTR Value 4k7
SYMBOL cap 368 512 R180
WINDOW 0 24 56 Left 2
WINDOW 3 24 8 Left 2
SYMATTR InstName C3
SYMATTR Value 1µ
SYMBOL voltage -272 224 R0
WINDOW 123 0 0 Left 0
WINDOW 39 0 0 Left 0
SYMATTR InstName V2
SYMATTR Value 24
SYMBOL res 576 240 R90
WINDOW 0 0 56 VBottom 2
WINDOW 3 32 56 VTop 2
SYMATTR InstName R7
SYMATTR Value 68k
SYMBOL cap 560 336 R90
WINDOW 0 0 32 VBottom 2
WINDOW 3 32 32 VTop 2
SYMATTR InstName C4
SYMATTR Value 120p
SYMBOL voltage -384 224 R0
SYMATTR InstName V3
SYMATTR Value 12
SYMBOL res 688 192 R0
SYMATTR InstName R8
SYMATTR Value 33k
SYMBOL cap 832 128 R90
WINDOW 0 0 32 VBottom 2
WINDOW 3 32 32 VTop 2
SYMATTR InstName C5
SYMATTR Value 1n
SYMBOL cap 832 368 R90
WINDOW 0 0 32 VBottom 2
WINDOW 3 32 32 VTop 2
SYMATTR InstName C6
SYMATTR Value 220n
SYMBOL res 176 144 R0
SYMATTR InstName R2
SYMATTR Value 1m
SYMBOL cap 832 496 R90
WINDOW 0 0 32 VBottom 2
WINDOW 3 32 32 VTop 2
SYMATTR InstName C7
SYMATTR Value 100n
SYMBOL res 928 528 R0
WINDOW 3 -73 77 Left 2
SYMATTR Value {ptm*10k + 1m}
SYMATTR InstName P3
SYMBOL res 928 400 R0
WINDOW 3 -73 76 Left 2
SYMATTR Value {ptb*50k + 1m}
SYMATTR InstName P2
SYMBOL res 928 272 R0
WINDOW 3 -51 74 Left 2
SYMATTR Value {ptt*50k + 1m}
SYMATTR InstName P1b
SYMBOL res 928 160 R0
WINDOW 3 -77 73 Left 2
SYMATTR Value {(1 - ptt)*50k + 1m}
SYMATTR InstName P1a
SYMBOL res 1152 320 R0
WINDOW 3 -79 78 Left 2
SYMATTR Value {(1 - ptg)*500k + 1m}
SYMATTR InstName P4a
SYMBOL res 1152 512 R0
WINDOW 3 -62 85 Left 2
SYMATTR Value {ptg*500k + 1m}
SYMATTR InstName P4b
SYMBOL Opamps\\opamp2 1520 240 M180
SYMATTR InstName U2
SYMATTR Value TL072
SYMBOL res 1440 144 R90
WINDOW 0 0 56 VBottom 2
WINDOW 3 32 56 VTop 2
SYMATTR InstName R9
SYMATTR Value 1k
SYMBOL res 1440 464 R90
WINDOW 0 0 56 VBottom 2
WINDOW 3 32 56 VTop 2
SYMATTR InstName R10
SYMATTR Value 1Meg
SYMBOL res 1456 288 R0
SYMATTR InstName R11
SYMATTR Value 4k7
SYMBOL res 1744 272 R90
WINDOW 0 0 56 VBottom 2
WINDOW 3 32 56 VTop 2
SYMATTR InstName R12
SYMATTR Value 68k
SYMBOL cap 1456 400 R0
SYMATTR InstName C8
SYMATTR Value 1µ
SYMBOL cap 1728 384 R90
WINDOW 0 0 32 VBottom 2
WINDOW 3 32 32 VTop 2
SYMATTR InstName C10
SYMATTR Value 120p
SYMBOL cap 1728 480 R90
WINDOW 0 0 32 VBottom 2
WINDOW 3 32 32 VTop 2
SYMATTR InstName C9
SYMATTR Value 1f
SYMBOL res 1968 160 R90
WINDOW 0 0 56 VBottom 2
WINDOW 3 32 56 VTop 2
SYMATTR InstName R13
SYMATTR Value 4k7
SYMBOL res 2016 336 R180
WINDOW 0 36 76 Left 2
WINDOW 3 36 40 Left 2
SYMATTR InstName R14
SYMATTR Value 220
SYMBOL diode 1904 448 R180
WINDOW 0 24 64 Left 2
WINDOW 3 24 0 Left 2
SYMATTR InstName D1
SYMATTR Value 1N4148
SYMBOL diode 1904 544 R180
WINDOW 0 24 64 Left 2
WINDOW 3 24 0 Left 2
SYMATTR InstName D2
SYMATTR Value 1N4148
SYMBOL diode 1984 384 R0
SYMATTR InstName D3
SYMATTR Value 1N4148
SYMBOL diode 1984 480 R0
SYMATTR InstName D4
SYMATTR Value 1N4148
SYMBOL Opamps\\opamp2 2160 256 M180
SYMATTR InstName U3
SYMATTR Value TL072
SYMBOL res 2096 368 R0
WINDOW 3 -25 74 Left 2
SYMATTR Value {(1 - ptv)*50k + 1m}
SYMATTR InstName P5a
SYMBOL res 2096 512 R0
WINDOW 3 -15 76 Left 2
SYMATTR Value {ptv*50k + 1m}
SYMATTR InstName P5b
SYMBOL Opamps\\opamp2 2448 256 M180
SYMATTR InstName U4
SYMATTR Value TL072
SYMBOL res 2544 288 R90
WINDOW 0 0 56 VBottom 2
WINDOW 3 32 56 VTop 2
SYMATTR InstName R15
SYMATTR Value 10k
SYMBOL res 2336 608 R180
WINDOW 0 36 76 Left 2
WINDOW 3 36 40 Left 2
SYMATTR InstName R16
SYMATTR Value 100k
SYMBOL res 2576 208 R270
WINDOW 0 32 56 VTop 2
WINDOW 3 0 56 VBottom 2
SYMATTR InstName R17
SYMATTR Value 220
SYMBOL res 2416 432 R180
WINDOW 0 36 76 Left 2
WINDOW 3 36 40 Left 2
SYMATTR InstName R18
SYMATTR Value 10k
SYMBOL cap 2784 176 R90
WINDOW 0 0 32 VBottom 2
WINDOW 3 32 32 VTop 2
SYMATTR InstName C11
SYMATTR Value 2µ2
SYMBOL res 2784 240 R0
SYMATTR InstName R19
SYMATTR Value 1Meg
TEXT -408 416 Left 2 !.inc OPAx134.lib\n.inc NE5532.txt\n.inc TL072.sub
TEXT -392 576 Left 2 !.tran 10m
TEXT -168 400 Left 2 !.param ptt 0.5\n.param ptm 0.5\n.param ptb 0.5\n.param ptg 0.1\n.param ptv 0.3
